!-Generator IDFEditor 1.53
!-Option SortedOrder

!-NOTE: All comments with '!-' are ignored by the IDFEditor and are generated automatically.
!-      Use '!' comments if they need to be retained when using the IDFEditor.


!-   ===========  ALL OBJECTS IN CLASS: VERSION ===========

! 2ZoneDataCenterHVAC_wEconomizer.idf
! Basic file description:  Basic test for Single Zone Air Loop System For Data Center Application.
!                          HVAC Components include:  Air Economizer, Direct Evaporative Cooler,
!                          Indirect Evaporative Coolers, Single Speed DX Cooling Coil,
!                          Chilled Water Coil and VAV with No Reheat Air Terminal Unit.
!
!                          Mass walls.  Regular slab floor. 2 Thermal Zones, and 2 supply plenum
!                          Regular roof.  No Windows. Air cooled IT equipment (ITE).
!
! Highlights:              Example of single zone Airloop HVAC system for Data Center Application
!
!
! Simulation Location/Run: CHICAGO_OHARE_INTL_IL_USA, 2 design days, four run periods,
!                          Run Control executes four single day run periods (see RUN PERIOD object)
!
! Location:                Chicago, IL
!
! Design Days:             Chicago Ohare Intl Ap IL USA Annual Heating 99%, MaxDB=-16.6°C
!                          Chicago Ohare Intl Ap IL USA Annual Cooling (DB=>MWB) 1%, MaxDB=31.6°C MWB=23°C
!
! Run Period (Weather File): 1/1 - 12/31.
!
! Run Control:             Zone sizing, weather file run period control
!
! Building: Fictional 2 zone building
!
!           The building is oriented due north.
!
! Floor Area:        491.34 m2
! Number of Stories: 1
!
! Zone Description Details:
!
!           (0,0,0)                 (15.24,15.24,0)      ---> True North
!              __________________________________
!             |                                  |
!             |                   West Zone      |
!             |                      Inlet Node  |<--SPLITTER--<  <--------|
!             |                                  |                         |
!             |                                  |                  AirLoopHVAC ( Data Center )
!             |                        Zone      |                         |
!             |                    Return Node   |>----MXER---->  >--------|
!             |                                  |
!             |                                  |
!             |__________________________________|
!         (15.24,0,0)                      (15.24,15.24,0)
!             |                                  |
!             |                                  |
!             |                                  |
!             |                   East Zone      |
!             |                      Inlet Node  |<--SPLITTER--<  <--------|
!             |                                  |                         |
!             |                                  |                  AirLoopHVAC ( Data Center )
!             |                        Zone      |                         |
!             |                    Return Node   |>----MXER---->  >--------|
!             |                                  |
!             |                                  |
!             |                                  |
!             |__________________________________|
!         (32.24,0,0)                      (32.24,15.24,0)
!
! Internal gains description:     Air cooled ITE and lights.
!
! Interzone Surfaces:             None
! Internal Mass:                  None
! People:                         0 Occupants
! Lights:                         284 Watts
! Equipment:                      0 Watts
! IT Equipment:                   200 Watts/m2
! Windows:                        0
! Detached Shading:               None
! Daylight:                       None
! Natural Ventilation:            None
! Compact Schedules:              Yes
! Solar Distribution:             MinimalShadowing
!
! HVAC:                           AirLoopHVAC serving a single thermal zone as a Data Center
!                                 There are two data centers, and each data center is served
!                                 by its own airloopHVAC.  The air loops has a DX cooling coil
!                                 and a chilled water cooling coil.
!
!                                 For west zone (West data Center) the chilled water coil is
!                                 always scheduled off.  For East zone (East data Center) the
!                                 DX cooling coil is always scheduled off. But the schedules
!                                 can be modified to allow to the DX and Chilled water coils
!                                 to run alternately during the day and night or during week
!                                 days and week ends.
!
! Zonal Equipment:                none
!
!
! Central Air Handling Equipment: Yes (Serving single zone)
! System Equipment Autosize:      Yes
! Purchased Cooling:              No
! Purchased Heating:              No
! Purchased Chilled Water:        No
! Purchased Hot Water:            No
! Air Terminal Unit Type:         AirTerminal:SingleDuct:VAV:NoReheat
! Evaporative Cooler:             EvaporativeCooler:Direct:ResearchSpecial, EvaporativeCooler:Indirect:ResearchSpecial
! Coils:                          Coil:Cooling:DX:SingleSpeed, Coil:Cooling:Water
! Pumps:                          Pump:VariableSpeed
! Boilers:                        None
! Chillers:                       Chiller:Electric,
! Towers:                         CoolingTower:VariableSpeed,
!
! Results:
! Standard Reports:               Variable Dictionary, Surfaces (dxf-wireframe), Meter File
! Timestep or Hourly Variables:   Timestep
! Time bins Report:               None
! HTML Report:                    None
! Environmental Emissions:        None
! Utility Tariffs:                None
Version,
    23.2;                    !- Version Identifier


!-   ===========  ALL OBJECTS IN CLASS: SIMULATIONCONTROL ===========

SimulationControl,
    Yes,                     !- Do Zone Sizing Calculation
    Yes,                     !- Do System Sizing Calculation
    Yes,                     !- Do Plant Sizing Calculation
    No,                      !- Run Simulation for Sizing Periods
    Yes,                     !- Run Simulation for Weather File Run Periods
    No,                     !- Do HVAC Sizing Simulation for Sizing Periods
    1;                       !- Maximum Number of HVAC Sizing Simulation Passes


!-   ===========  ALL OBJECTS IN CLASS: BUILDING ===========

Building,
    Simple One Zone (Wireframe DXF),  !- Name
    0,                       !- North Axis {deg}
    Suburbs,                 !- Terrain
    0.04,                    !- Loads Convergence Tolerance Value {W}
    0.004,                   !- Temperature Convergence Tolerance Value {deltaC}
    MinimalShadowing,        !- Solar Distribution
    30,                      !- Maximum Number of Warmup Days
    6;                       !- Minimum Number of Warmup Days


!-   ===========  ALL OBJECTS IN CLASS: SURFACECONVECTIONALGORITHM:INSIDE ===========

SurfaceConvectionAlgorithm:Inside,
    TARP;                    !- Algorithm


!-   ===========  ALL OBJECTS IN CLASS: SURFACECONVECTIONALGORITHM:OUTSIDE ===========

SurfaceConvectionAlgorithm:Outside,
    DOE-2;                   !- Algorithm


!-   ===========  ALL OBJECTS IN CLASS: HEATBALANCEALGORITHM ===========

HeatBalanceAlgorithm,
    ConductionTransferFunction;  !- Algorithm


!-   ===========  ALL OBJECTS IN CLASS: TIMESTEP ===========

Timestep,
    6;                       !- Number of Timesteps per Hour


!-   ===========  ALL OBJECTS IN CLASS: SITE:LOCATION ===========

Site:Location,
    CHICAGO_IL_USA TMY2-94846,  !- Name
    41.78,                   !- Latitude {deg}
    -87.75,                  !- Longitude {deg}
    -6.00,                   !- Time Zone {hr}
    190.00;                  !- Elevation {m}


!-   ===========  ALL OBJECTS IN CLASS: SIZINGPERIOD:DESIGNDAY ===========

! CHICAGO_IL_USA Annual Heating 99% Design Conditions DB, MaxDB= -17.3°C
SizingPeriod:DesignDay,
    CHICAGO_IL_USA Annual Heating 99% Design Conditions DB,  !- Name
    1,                       !- Month
    8,                       !- Day of Month
    WinterDesignDay,         !- Day Type
    -17.3,                   !- Maximum Dry-Bulb Temperature {C}
    0.0,                     !- Daily Dry-Bulb Temperature Range {deltaC}
    ,                        !- Dry-Bulb Temperature Range Modifier Type
    ,                        !- Dry-Bulb Temperature Range Modifier Day Schedule Name
    Wetbulb,                 !- Humidity Condition Type
    -17.3,                   !- Wetbulb or DewPoint at Maximum Dry-Bulb {C}
    ,                        !- Humidity Condition Day Schedule Name
    ,                        !- Humidity Ratio at Maximum Dry-Bulb {kgWater/kgDryAir}
    ,                        !- Enthalpy at Maximum Dry-Bulb {J/kg}
    ,                        !- Daily Wet-Bulb Temperature Range {deltaC}
    99063.,                  !- Barometric Pressure {Pa}
    4.9,                     !- Wind Speed {m/s}
    270,                     !- Wind Direction {deg}
    No,                      !- Rain Indicator
    No,                      !- Snow Indicator
    No,                      !- Daylight Saving Time Indicator
    ASHRAEClearSky,          !- Solar Model Indicator
    ,                        !- Beam Solar Day Schedule Name
    ,                        !- Diffuse Solar Day Schedule Name
    ,                        !- ASHRAE Clear Sky Optical Depth for Beam Irradiance (taub) {dimensionless}
    ,                        !- ASHRAE Clear Sky Optical Depth for Diffuse Irradiance (taud) {dimensionless}
    0.0;                     !- Sky Clearness

! CHICAGO_IL_USA Annual Cooling 1% Design Conditions, MaxDB=  31.5°C MCWB=  23.0°C
SizingPeriod:DesignDay,
    CHICAGO_IL_USA Annual Cooling 1% Design Conditions DB/MCWB,  !- Name
    7,                       !- Month
    3,                       !- Day of Month
    SummerDesignDay,         !- Day Type
    31.5,                    !- Maximum Dry-Bulb Temperature {C}
    10.7,                    !- Daily Dry-Bulb Temperature Range {deltaC}
    ,                        !- Dry-Bulb Temperature Range Modifier Type
    ,                        !- Dry-Bulb Temperature Range Modifier Day Schedule Name
    Wetbulb,                 !- Humidity Condition Type
    23.0,                    !- Wetbulb or DewPoint at Maximum Dry-Bulb {C}
    ,                        !- Humidity Condition Day Schedule Name
    ,                        !- Humidity Ratio at Maximum Dry-Bulb {kgWater/kgDryAir}
    ,                        !- Enthalpy at Maximum Dry-Bulb {J/kg}
    ,                        !- Daily Wet-Bulb Temperature Range {deltaC}
    99063.,                  !- Barometric Pressure {Pa}
    5.3,                     !- Wind Speed {m/s}
    230,                     !- Wind Direction {deg}
    No,                      !- Rain Indicator
    No,                      !- Snow Indicator
    No,                      !- Daylight Saving Time Indicator
    ASHRAEClearSky,          !- Solar Model Indicator
    ,                        !- Beam Solar Day Schedule Name
    ,                        !- Diffuse Solar Day Schedule Name
    ,                        !- ASHRAE Clear Sky Optical Depth for Beam Irradiance (taub) {dimensionless}
    ,                        !- ASHRAE Clear Sky Optical Depth for Diffuse Irradiance (taud) {dimensionless}
    1.0;                     !- Sky Clearness


!-   ===========  ALL OBJECTS IN CLASS: RUNPERIOD ===========

RunPeriod,
    Annual,                  !- Name
    7,                       !- Begin Month
    1,                       !- Begin Day of Month
    ,                        !- Begin Year
    7,                      !- End Month
    14,                      !- End Day of Month
    ,                        !- End Year
    Tuesday,                 !- Day of Week for Start Day
    Yes,                     !- Use Weather File Holidays and Special Days
    Yes,                     !- Use Weather File Daylight Saving Period
    No,                      !- Apply Weekend Holiday Rule
    Yes,                     !- Use Weather File Rain Indicators
    Yes;                     !- Use Weather File Snow Indicators


!-   ===========  ALL OBJECTS IN CLASS: SITE:GROUNDTEMPERATURE:BUILDINGSURFACE ===========

Site:GroundTemperature:BuildingSurface,
    20.03,                   !- January Ground Temperature {C}
    20.03,                   !- February Ground Temperature {C}
    20.13,                   !- March Ground Temperature {C}
    20.30,                   !- April Ground Temperature {C}
    20.43,                   !- May Ground Temperature {C}
    20.52,                   !- June Ground Temperature {C}
    20.62,                   !- July Ground Temperature {C}
    20.77,                   !- August Ground Temperature {C}
    20.78,                   !- September Ground Temperature {C}
    20.55,                   !- October Ground Temperature {C}
    20.44,                   !- November Ground Temperature {C}
    20.20;                   !- December Ground Temperature {C}


!-   ===========  ALL OBJECTS IN CLASS: SITE:GROUNDTEMPERATURE:SHALLOW ===========

Site:GroundTemperature:Shallow,
    20.03,                   !- January Surface Ground Temperature {C}
    20.03,                   !- February Surface Ground Temperature {C}
    20.13,                   !- March Surface Ground Temperature {C}
    20.30,                   !- April Surface Ground Temperature {C}
    20.43,                   !- May Surface Ground Temperature {C}
    20.52,                   !- June Surface Ground Temperature {C}
    20.62,                   !- July Surface Ground Temperature {C}
    20.77,                   !- August Surface Ground Temperature {C}
    20.78,                   !- September Surface Ground Temperature {C}
    20.55,                   !- October Surface Ground Temperature {C}
    20.44,                   !- November Surface Ground Temperature {C}
    20.20;                   !- December Surface Ground Temperature {C}


!-   ===========  ALL OBJECTS IN CLASS: SITE:GROUNDTEMPERATURE:DEEP ===========

Site:GroundTemperature:Deep,
    16.1,                    !- January Deep Ground Temperature {C}
    16.1,                    !- February Deep Ground Temperature {C}
    16.1,                    !- March Deep Ground Temperature {C}
    16.1,                    !- April Deep Ground Temperature {C}
    16.1,                    !- May Deep Ground Temperature {C}
    16.1,                    !- June Deep Ground Temperature {C}
    16.1,                    !- July Deep Ground Temperature {C}
    16.1,                    !- August Deep Ground Temperature {C}
    16.1,                    !- September Deep Ground Temperature {C}
    16.1,                    !- October Deep Ground Temperature {C}
    16.1,                    !- November Deep Ground Temperature {C}
    16.1;                    !- December Deep Ground Temperature {C}


!-   ===========  ALL OBJECTS IN CLASS: SCHEDULETYPELIMITS ===========

ScheduleTypeLimits,
    CW Loop Any Number;      !- Name

ScheduleTypeLimits,
    CW Loop On/Off,          !- Name
    0,                       !- Lower Limit Value
    1,                       !- Upper Limit Value
    DISCRETE;                !- Numeric Type

! -- Condenser loop schedules---------------------
ScheduleTypeLimits,
    Tower On/Off,            !- Name
    0,                       !- Lower Limit Value
    1,                       !- Upper Limit Value
    DISCRETE;                !- Numeric Type

ScheduleTypeLimits,
    Any Number;              !- Name

ScheduleTypeLimits,
    Control Type,            !- Name
    0,                       !- Lower Limit Value
    4,                       !- Upper Limit Value
    DISCRETE;                !- Numeric Type

ScheduleTypeLimits,
    Temperature,             !- Name
    -60,                     !- Lower Limit Value
    200,                     !- Upper Limit Value
    CONTINUOUS,              !- Numeric Type
    Temperature;             !- Unit Type

ScheduleTypeLimits,
    Fraction,                !- Name
    0.0,                     !- Lower Limit Value
    1.0,                     !- Upper Limit Value
    CONTINUOUS;              !- Numeric Type

!____________________________________________________________________
ScheduleTypeLimits,
    On/Off,                  !- Name
    0,                       !- Lower Limit Value
    1,                       !- Upper Limit Value
    DISCRETE;                !- Numeric Type


!-   ===========  ALL OBJECTS IN CLASS: SCHEDULE:COMPACT ===========

Schedule:Compact,
    OAFractionSched,         !- Name
    Fraction,                !- Schedule Type Limits Name
    Through: 12/31,          !- Field 1
    For: AllDays,            !- Field 2
    Until: 7:00,             !- Field 3
    0.05,                    !- Field 4
    Until: 18:00,            !- Field 5
    1.0,                     !- Field 6
    Until: 24:00,            !- Field 7
    0.05;                    !- Field 8

Schedule:Compact,
    CW Loop Temp Schedule,   !- Name
    CW Loop Any Number,      !- Schedule Type Limits Name
    THROUGH: 12/31,          !- Field 1
    FOR: AllDays,            !- Field 2
    UNTIL: 24:00,            !- Field 3
    7.0;                     !- Field 4

Schedule:Compact,
    Chiller AlwaysOnSchedule,!- Name
    CW Loop On/Off,          !- Schedule Type Limits Name
    THROUGH: 12/31,          !- Field 1
    FOR: AllDays,            !- Field 2
    UNTIL: 24:00,            !- Field 3
    1;                       !- Field 4

Schedule:Compact,
    Load Profile Flow Frac Schedule,  !- Name
    CW Loop Any Number,      !- Schedule Type Limits Name
    THROUGH: 12/31,          !- Field 1
    FOR: AllDays,            !- Field 2
    UNTIL: 24:00,            !- Field 3
    1;                       !- Field 4

Schedule:Compact,
    Tower AlwaysOnSchedule,  !- Name
    Tower On/Off,            !- Schedule Type Limits Name
    THROUGH: 12/31,          !- Field 1
    FOR: AllDays,            !- Field 2
    UNTIL: 24:00,            !- Field 3
    1;                       !- Field 4

Schedule:Compact,
    OFFICE OCCUPANCY,        !- Name
    Fraction,                !- Schedule Type Limits Name
    Through: 12/31,          !- Field 1
    For: WeekDays SummerDesignDay,  !- Field 2
    Until: 6:00,             !- Field 3
    0.0,                     !- Field 4
    Until: 7:00,             !- Field 5
    0.10,                    !- Field 6
    Until: 8:00,             !- Field 7
    0.50,                    !- Field 8
    Until: 12:00,            !- Field 9
    1.00,                    !- Field 10
    Until: 13:00,            !- Field 11
    0.50,                    !- Field 12
    Until: 16:00,            !- Field 13
    1.00,                    !- Field 14
    Until: 17:00,            !- Field 15
    0.50,                    !- Field 16
    Until: 18:00,            !- Field 17
    0.10,                    !- Field 18
    Until: 24:00,            !- Field 19
    0.0,                     !- Field 20
    For: AllOtherDays,       !- Field 21
    Until: 24:00,            !- Field 22
    0.0;                     !- Field 23

Schedule:Compact,
    Activity Sch,            !- Name
    Any Number,              !- Schedule Type Limits Name
    Through: 12/31,          !- Field 1
    For: AllDays,            !- Field 2
    Until: 24:00,            !- Field 3
    131.8;                   !- Field 4

Schedule:Compact,
    Work Eff Sch,            !- Name
    Any Number,              !- Schedule Type Limits Name
    Through: 12/31,          !- Field 1
    For: AllDays,            !- Field 2
    Until: 24:00,            !- Field 3
    0.0;                     !- Field 4

Schedule:Compact,
    Clothing Sch,            !- Name
    Any Number,              !- Schedule Type Limits Name
    Through: 12/31,          !- Field 1
    For: AllDays,            !- Field 2
    Until: 24:00,            !- Field 3
    1.0;                     !- Field 4

Schedule:Compact,
    Air Velo Sch,            !- Name
    Any Number,              !- Schedule Type Limits Name
    Through: 12/31,          !- Field 1
    For: AllDays,            !- Field 2
    Until: 24:00,            !- Field 3
    0.137;                   !- Field 4

Schedule:Compact,
    BLDG_EQUIP_SCH,          !- Name
    Fraction,                !- Schedule Type Limits Name
    Through: 12/31,          !- Field 1
    For: Weekdays,           !- Field 2
    Until: 08:00,            !- Field 3
    0.40,                    !- Field 4
    Until: 12:00,            !- Field 5
    0.90,                    !- Field 6
    Until: 13:00,            !- Field 7
    0.80,                    !- Field 8
    Until: 17:00,            !- Field 9
    0.90,                    !- Field 10
    Until: 18:00,            !- Field 11
    0.50,                    !- Field 12
    Until: 24:00,            !- Field 13
    0.40,                    !- Field 14
    For: SummerDesignDay,    !- Field 15
    Until: 24:00,            !- Field 16
    1.0,                     !- Field 17
    For: Saturday,           !- Field 18
    Until: 06:00,            !- Field 19
    0.30,                    !- Field 20
    Until: 08:00,            !- Field 21
    0.4,                     !- Field 22
    Until: 12:00,            !- Field 23
    0.5,                     !- Field 24
    Until: 17:00,            !- Field 25
    0.35,                    !- Field 26
    Until: 24:00,            !- Field 27
    0.30,                    !- Field 28
    For: WinterDesignDay,    !- Field 29
    Until: 24:00,            !- Field 30
    0.0,                     !- Field 31
    For: Sunday Holidays AllOtherDays,  !- Field 32
    Until: 24:00,            !- Field 33
    0.30;                    !- Field 34

Schedule:Compact,
    Data Center CPU Loading Schedule-backup,  !- Name
    Any Number,              !- Schedule Type Limits Name
    Through: 12/31,          !- Field 1
    For: SummerDesignDay,    !- Field 2
    Until: 24:00,            !- Field 3
    1.00,                    !- Field 4
    For: AllOtherDays,       !- Field 5
    Until: 6:00,             !- Field 6
    0.25,                    !- Field 7
    Until: 8:00,             !- Field 8
    0.5,                     !- Field 9
    Until: 12:00,            !- Field 10
    0.75,                    !- Field 11
    Until: 18:00,            !- Field 12
    1.00,                    !- Field 13
    Until: 24:00,            !- Field 14
    0.80;                    !- Field 15

Schedule:Compact,
    Data Center CPU Loading Schedule,  !- Name
    Any Number,              !- Schedule Type Limits Name
    Through: 12/31,          !- Field 1
    For: SummerDesignDay,    !- Field 2
    Until: 24:00,            !- Field 3
    1.00,                    !- Field 4
    For: AllOtherDays,       !- Field 5
    Until: 24:00,             !- Field 6
    1.00;                    !- Field 15


Schedule:Compact,
    LIGHTS-1,                !- Name
    Fraction,                !- Schedule Type Limits Name
    Through: 12/31,          !- Field 1
    For: Weekdays SummerDesignDay WinterDesignDay,  !- Field 2
    Until: 9:00,             !- Field 3
    0.05,                    !- Field 4
    Until: 10:00,            !- Field 5
    0.9,                     !- Field 6
    Until: 11:00,            !- Field 7
    0.95,                    !- Field 8
    Until: 12:00,            !- Field 9
    1.0,                     !- Field 10
    Until: 13:00,            !- Field 11
    0.95,                    !- Field 12
    Until: 14:00,            !- Field 13
    0.8,                     !- Field 14
    Until: 15:00,            !- Field 15
    0.9,                     !- Field 16
    Until: 17:00,            !- Field 17
    1.0,                     !- Field 18
    Until: 24:00,            !- Field 19
    0.05,                    !- Field 20
    For: AllOtherDays,       !- Field 21
    Until: 24:00,            !- Field 22
    0.05;                    !- Field 23

Schedule:Compact,
    Zone Control Type Sched, !- Name
    Control Type,            !- Schedule Type Limits Name
    Through: 12/31,          !- Field 1
    For: AllDays,            !- Field 2
    Until: 24:00,            !- Field 3
    4;                       !- Field 4

Schedule:Compact,
    Heating Setpoints,       !- Name
    Temperature,             !- Schedule Type Limits Name
    Through: 12/31,          !- Field 1
    For: AllDays,            !- Field 2
    Until:  7:00,            !- Field 3
    20.0,                    !- Field 4
    Until: 17:00,            !- Field 5
    20.0,                    !- Field 6
    Until: 24:00,            !- Field 7
    20.0;                    !- Field 8

Schedule:Compact,
    Cooling Setpoints,       !- Name
    Temperature,             !- Schedule Type Limits Name
    Through: 12/31,          !- Field 1
    For: AllDays,            !- Field 2
    Until:  7:00,            !- Field 3
    23.0,                    !- Field 4
    Until: 17:00,            !- Field 5
    23.0,                    !- Field 6
    Until: 24:00,            !- Field 7
    23.0;                    !- Field 8

Schedule:Compact,
    ALWAYS_ON,               !- Name
    Fraction,                !- Schedule Type Limits Name
    Through: 12/31,          !- Field 1
    For: AllDays,            !- Field 2
    Until: 24:00,            !- Field 3
    1.0;                     !- Field 4

!  Schedule:Compact,
!    ALWAYS_OFF,              !- Name
!    Fraction,                !- Schedule Type Limits Name
!    Through: 12/31,          !- Field 1
!    For: AllDays,            !- Field 2
!    Until: 24:00,.0;         !- Field 3
Schedule:Compact,
    FanAndCoilAvailSched,    !- Name
    Fraction,                !- Schedule Type Limits Name
    Through: 12/31,          !- Field 1
    For: AllDays,            !- Field 2
    Until: 24:00,            !- Field 3
    1.0;                     !- Field 4

Schedule:Compact,
    WestChWaterCoilAvailSched,  !- Name
    Fraction,                !- Schedule Type Limits Name
    Through: 12/31,          !- Field 1
    For: AllDays,            !- Field 2
    Until: 24:00,            !- Field 3
    0.0;                     !- Field 4

Schedule:Compact,
    WestDXCCoilAvailSched,   !- Name
    Fraction,                !- Schedule Type Limits Name
    Through: 12/31,          !- Field 1
    For: AllDays,            !- Field 2
    Until:  7:00,            !- Field 3
    1.0,                     !- Field 4
    Until: 17:00,            !- Field 5
    1.0,                     !- Field 6
    Until: 24:00,            !- Field 7
    1.0;                     !- Field 8

Schedule:Compact,
    EastChWaterCoilAvailSched,  !- Name
    Fraction,                !- Schedule Type Limits Name
    Through: 12/31,          !- Field 1
    For: AllDays,            !- Field 2
    Until:  7:00,            !- Field 3
    1.0,                     !- Field 4
    Until: 17:00,            !- Field 5
    1.0,                     !- Field 6
    Until: 24:00,            !- Field 7
    1.0;                     !- Field 8

Schedule:Compact,
    EastDXCCoilAvailSched,   !- Name
    Fraction,                !- Schedule Type Limits Name
    Through: 12/31,          !- Field 1
    For: AllDays,            !- Field 2
    Until: 24:00,            !- Field 3
    0.0;                     !- Field 4

Schedule:Compact,
    USE Loop Temp Sch,       !- Name
    Any Number,              !- Schedule Type Limits Name
    THROUGH: 12/31,          !- Field 1
    FOR: AllDays,            !- Field 2
    UNTIL: 24:00,            !- Field 3
    17.0;                    !- Field 4

Schedule:Compact,
    TRANSFER Loop Temp Sch,  !- Name
    Any Number,              !- Schedule Type Limits Name
    THROUGH: 12/31,          !- Field 1
    FOR: AllDays,            !- Field 2
    UNTIL: 24:00,            !- Field 3
    12.0;                    !- Field 4

Schedule:Compact,
    SOURCE Loop Temp Sch,    !- Name
    Any Number,              !- Schedule Type Limits Name
    THROUGH: 12/31,          !- Field 1
    FOR: AllDays,            !- Field 2
    UNTIL: 24:00,            !- Field 3
    5.0;                     !- Field 4

Schedule:Compact,
    AlwaysOnSchedule,        !- Name
    On/Off,                  !- Schedule Type Limits Name
    THROUGH: 12/31,          !- Field 1
    FOR: AllDays,            !- Field 2
    UNTIL: 24:00,            !- Field 3
    1;                       !- Field 4

Schedule:Compact,
    Load Profile 1 Load Schedule-backup,  !- Name
    Any Number,              !- Schedule Type Limits Name
    THROUGH: 12/31,          !- Field 1
    FOR: AllDays,            !- Field 2
    UNTIL: 2:00,             !- Field 3
    -50000,                  !- Field 4
    UNTIL: 4:00,             !- Field 5
    -40000,                  !- Field 6
    UNTIL: 8:00,             !- Field 7
    -60000,                  !- Field 8
    UNTIL: 12:00,            !- Field 9
    -100000,                 !- Field 10
    UNTIL: 16:00,            !- Field 11